 &time_control
 start_year                          = 2016, 2000, 2000,
 start_month                         = 08,   01,   01,
 start_day                           = 01,   24,   24,
 start_hour                          = 00,   12,   12,
 start_minute                        = 00,   00,   00,
 start_second                        = 00,   00,   00,
 end_year                            = 2016, 2000, 2000,
 end_month                           = 08,   01,   01,
 end_day                             = 02,   25,   25,
 end_hour                            = 00,   12,   12,
 end_minute                          = 00,   00,   00,
 end_second                          = 00,   00,   00,
 interval_seconds                    = 21600
 input_from_file                     = .true.,.true.,.true.,
 history_interval                    = 360,  60,   60,
 frames_per_outfile                  = 1000, 1000, 1000,
 restart                             = .false.,
 restart_interval                    = 1440,
 io_form_history                     = 2
 io_form_restart                     = 2
 io_form_input                       = 2
 io_form_boundary                    = 2
 !io_form_auxinput12                  = 2
 debug_level                         = 0
 auxinput5_inname                    = 'wrfchemi_d<domain>_<date>',
 io_form_auxinput5                   = 2,
 frames_per_auxinput5                = 12,
 auxinput5_interval_m                = 60,
 auxinput6_inname                    = 'wrfbiochemi_d<domain>',
 io_form_auxinput6                   = 2,
 !auxinput6_interval_d                = 90,
 auxinput7_inname                    = 'wrffirechemi_d<domain>_<date>',
 io_form_auxinput7                   = 2,
 frames_per_auxinput7                = 1,
 auxinput7_interval_m                = 60,
 /

 &domains
 time_step                           = 180,
 time_step_fract_num                 = 0,
 time_step_fract_den                 = 1,
 max_dom                             = 1,
 e_we                                = 390,    112,   94,
 e_sn                                = 290,    97,    91,
 e_vert                              = 32,    30,    30,
 p_top_requested                     = 10000,
 num_metgrid_levels                  = 32,
 num_metgrid_soil_levels             = 4,
 dx                                  = 20000, 10000,  3333.33,
 dy                                  = 20000, 10000,  3333.33,
 grid_id                             = 1,     2,     3,
 parent_id                           = 0,     1,     2,
 i_parent_start                      = 1,     31,    30,
 j_parent_start                      = 1,     17,    30,
 parent_grid_ratio                   = 1,     3,     3,
 parent_time_step_ratio              = 1,     3,     3,
 feedback                            = 1,
 smooth_option                       = 0
 /

 &physics
 physics_suite                       = 'CONUS'
 radt                                = 15,    30,    30,
 bldt                                = 0,     0,     0,
 cudt                                = 5,     5,     5,
 icloud                              = 1,
 num_soil_layers                     = 4,
 num_land_cat                        = 21,
 sf_urban_physics                    = 0,     0,     0,
 /

 &fdda
 grid_fdda                           = 1, 1, 1,
 gfdda_inname                        = "wrffdda_d<domain>",
 gfdda_end_h                         = 1464, 24, 24,
 gfdda_interval_m                    = 360, 360, 360,
 fgdt                                = 0, 0, 0,
 if_no_pbl_nudging_uv                = 1, 0, 0,
 if_no_pbl_nudging_t                 = 1, 1, 1,
 if_no_pbl_nudging_q                 = 1, 1, 1,
 if_zfac_uv                          = 1, 1, 1,
 k_zfac_uv                           = 10, 10, 10,
 if_zfac_t                           = 0, 0, 0,
 k_zfac_t                            = 10, 10, 10,
 if_zfac_q                           = 0, 0, 0,
 k_zfac_q                            = 10, 10, 10,
 guv                                 = 0.0003, 0.0003, 0.0003,
 gt                                  = 0.0003, 0.0003, 0.0003,
 gq                                  = 0.0003, 0.0003, 0.0003,
 if_ramping                          = 1,
 dtramp_min                          = 60.0,
 io_form_gfdda                       = 2,
 /

 &dynamics
 w_damping                           = 0,
 diff_opt                            = 1,      1,      1,
 km_opt                              = 4,      4,      4,
 diff_6th_opt                        = 0,      0,      0,
 diff_6th_factor                     = 0.12,   0.12,   0.12,
 base_temp                           = 290.
 damp_opt                            = 0,
 zdamp                               = 5000.,  5000.,  5000.,
 dampcoef                            = 0.2,    0.2,    0.2
 khdif                               = 0,      0,      0,
 kvdif                               = 0,      0,      0,
 non_hydrostatic                     = .true., .true., .true.,
 moist_adv_opt                       = 1,      1,      1,     
 scalar_adv_opt                      = 1,      1,      1,     
 gwd_opt                             = 1,
 /

 &bdy_control
 spec_bdy_width                      = 5,
 spec_zone                           = 1,
 relax_zone                          = 4,
 specified                           = .true., .false.,.false.,
 nested                              = .false., .true., .true.,
 /

 &grib2
 /

&chem
 kemit                               = 1,
 chem_opt                            = 202,
 bioemdt                             = 30,
 photdt                              = 30.,
 chemdt                              = 6.0,
 io_style_emissions                  = 1,
 emiss_inpt_opt                      = 102,
 emiss_opt                           = 10,
 chem_in_opt                         = 1,
 phot_opt                            = 3,
 gas_drydep_opt                      = 1,
 aer_drydep_opt                      = 1,
 bio_emiss_opt                       = 3,
 gas_bc_opt                          = 1,
 gas_ic_opt                          = 1,
 aer_bc_opt                          = 1,
 aer_ic_opt                          = 1,
 gaschem_onoff                       = 1,
 aerchem_onoff                       = 1,
 wetscav_onoff                       = 1,
 cldchem_onoff                       = 1,
 vertmix_onoff                       = 1,
 chem_conv_tr                        = 1,
 conv_tr_wetscav                     = 1,
 conv_tr_aqchem                      = 1,
 seas_opt                            = 2,
 dust_opt                            = 3,
 dmsemis_opt                         = 1,
 biomass_burn_opt                    = 2,
 plumerisefire_frq                   = 30,
 aer_ra_feedback                     = 1,
 ne_area                             = 200,
 opt_pars_out                        = 1,
 have_bcs_chem                       = .true.,
 have_bcs_upper                      = .false.,
 /

 &namelist_quilt
 nio_tasks_per_group = 0,
 nio_groups = 1,
 /
